boost converter
V1 1 0 220V
L1 2 3 70mH
D1 0 2 mod1
C1 3 0 142nF
Rload 3 0 128
S1 1 2 4 0 swmod
Vs 4 0 PWL(0 0 .0000520 0 .00005201 1 .0002 1) r=0
.model swmod sw (Ron=0.01 Roff=1Meg VT=0.98 VH=0.01)
.model mod1 d
.control
set color0=rgb:FF/FF/FF
tran 0.01m 10m
plot v(3)
plot l1#branch
.endc
.end
